<?xml version='1.0' encoding='UTF-8'?>
<edges>
  <edge id="1" from="114" to="121" numLanes="2" width="5.375" shape="-205.000000,-95.500000 -205.000735,104.500000 "/>
  <edge id="-1" to="114" from="121" numLanes="2" width="5.375" shape="-205.000735,104.500000 -205.000000,-95.500000 "/>
  <edge id="3" from="143" to="132" numLanes="2" width="5.375" shape="-45.000000,-95.500000 -45.000735,104.500000 "/>
  <edge id="-3" to="143" from="132" numLanes="2" width="5.375" shape="-45.000735,104.500000 -45.000000,-95.500000 "/>
  <edge id="2" from="121" to="132" numLanes="2" width="5.375" shape="-205.000000,104.499706 -203.462882,120.106925 -198.910485,135.114379 -191.517754,148.945341 -181.568788,161.068297 -169.445918,171.017369 -155.615020,178.410220 -140.607605,182.962747 -125.000400,184.500000 -109.393180,182.962903 -94.385719,178.410526 -80.554747,171.017813 -68.431778,161.068863 -58.482690,148.946006 -51.089821,135.115118 -46.537274,120.107709 -45.000000,104.500506 "/>
  <edge id="-2" to="121" from="132" numLanes="2" width="5.375" shape="-45.000000,104.500506 -46.537274,120.107709 -51.089821,135.115118 -58.482690,148.946006 -68.431778,161.068863 -80.554747,171.017813 -94.385719,178.410526 -109.393180,182.962903 -125.000400,184.500000 -140.607605,182.962747 -155.615020,178.410220 -169.445918,171.017369 -181.568788,161.068297 -191.517754,148.945341 -198.910485,135.114379 -203.462882,120.106925 -205.000000,104.499706 "/>
  <edge id="4" from="143" to="114" numLanes="2" width="5.375" shape="-45.000000,-95.500294 -46.537232,-111.107501 -51.089740,-126.114922 -58.482572,-139.945830 -68.431628,-152.068713 -80.554571,-162.017695 -94.385523,-169.410445 -109.392971,-173.962862 -125.000188,-175.500000 -140.607397,-173.962788 -155.614823,-169.410301 -169.445742,-162.017487 -181.568638,-152.068447 -191.517636,-139.945518 -198.910404,-126.114575 -203.462841,-111.107133 -205.000000,-95.499918 "/>
  <edge id="-4" to="143" from="114" numLanes="2" width="5.375" shape="-205.000000,-95.499918 -203.462841,-111.107133 -198.910404,-126.114575 -191.517636,-139.945518 -181.568638,-152.068447 -169.445742,-162.017487 -155.614823,-169.410301 -140.607397,-173.962788 -125.000188,-175.500000 -109.392971,-173.962862 -94.385523,-169.410445 -80.554571,-162.017695 -68.431628,-152.068713 -58.482572,-139.945830 -51.089740,-126.114922 -46.537232,-111.107501 -45.000000,-95.500294 "/>
</edges>
