<?xml version='1.0' encoding='UTF-8'?>
<nodes>
  <node id="121" x="-205.0" y="104.5"/>
  <node id="132" x="-45.0" y="104.5"/>
  <node id="143" x="-45.0" y="-95.5"/>
  <node id="114" x="-205.0" y="-95.5"/>
</nodes>
